Version 4
SHEET 1 880 680
WIRE -880 -272 -880 -288
WIRE 128 -240 32 -240
WIRE 272 -240 192 -240
WIRE -880 -160 -880 -192
WIRE 32 -144 32 -240
WIRE 272 -144 272 -240
WIRE -880 -32 -880 -80
WIRE -1072 96 -1072 64
WIRE -928 96 -1072 96
WIRE -1072 128 -1072 96
WIRE -928 144 -928 96
WIRE -1072 256 -1072 208
WIRE -928 256 -928 208
WIRE -928 256 -1072 256
WIRE -1072 272 -1072 256
FLAG -880 -288 VCC
FLAG -880 -32 0
FLAG -1072 272 0
FLAG -1072 64 VCC
SYMBOL cap 192 -256 R90
WINDOW 0 0 32 VBottom 2
WINDOW 3 32 32 VTop 2
SYMATTR InstName C2
SYMATTR Value 16.7p
SYMBOL res 224 -160 R90
WINDOW 0 0 56 VBottom 2
WINDOW 3 32 56 VTop 2
SYMATTR InstName R2
SYMATTR Value 71.4k
SYMBOL res -896 -288 R0
SYMATTR InstName R3
SYMATTR Value 1Meg
SYMBOL res -896 -176 R0
SYMATTR InstName R4
SYMATTR Value 1Meg
SYMBOL circuiTikz\\voltage_us -1072 112 R0
WINDOW 123 0 0 Left 0
WINDOW 39 0 0 Left 0
SYMATTR InstName VCC
SYMATTR Value 3.0
SYMBOL cap -912 208 R180
WINDOW 0 24 56 Left 2
WINDOW 3 24 8 Left 2
SYMATTR InstName C6
SYMATTR Value 100p
TEXT -1104 456 Left 2 !.tran 0 50m
TEXT -1104 408 Left 2 !;ac dec 10 1 100K
TEXT -1096 520 Left 2 !.inc OPA2834.sub
