Version 4
SHEET 1 880 680
WIRE 432 144 256 144
WIRE 432 192 432 144
WIRE 256 224 256 144
WIRE 256 224 208 224
WIRE 256 272 208 272
WIRE 256 320 256 272
WIRE 256 320 208 320
WIRE 432 320 432 272
WIRE 432 320 256 320
WIRE 256 352 256 320
FLAG 256 352 0
SYMBOL micelectret1 96 240 R0
SYMATTR InstName U1
SYMATTR SpiceLine frec=1000 dBSPL=90
SYMBOL circuiTikz\\voltage_us 432 176 R0
WINDOW 123 0 0 Left 0
WINDOW 39 0 0 Left 0
SYMATTR InstName A
SYMATTR Value 0
TEXT 360 376 Left 2 !.dc A 0 10 0.01
