Version 4
SHEET 1 1416 1156
WIRE 400 80 400 64
WIRE 400 192 400 160
WIRE 528 192 400 192
WIRE 752 208 752 192
WIRE 864 208 752 208
WIRE 752 224 752 208
WIRE 864 224 864 208
WIRE 400 240 400 192
WIRE 1280 240 1168 240
WIRE 1280 288 1280 240
WIRE 240 304 160 304
WIRE 352 304 240 304
WIRE 864 304 864 288
WIRE 864 304 752 304
WIRE 1120 304 1008 304
WIRE 160 320 160 304
WIRE 240 320 240 304
WIRE 752 320 752 304
WIRE 1008 320 1008 304
WIRE 160 416 160 400
WIRE 240 416 240 400
WIRE 240 416 160 416
WIRE 400 416 400 336
WIRE 400 416 240 416
WIRE 1008 416 1008 400
WIRE 1168 416 1168 336
WIRE 1168 416 1008 416
WIRE 1280 416 1280 368
WIRE 1280 416 1168 416
WIRE 240 432 240 416
WIRE 1008 432 1008 416
FLAG 752 320 0
FLAG 752 192 VCC
FLAG 400 64 VCC
FLAG 240 432 0
FLAG 592 192 0
FLAG 1008 432 0
SYMBOL res 384 64 R0
SYMATTR InstName R1
SYMATTR Value 1k
SYMBOL res 224 304 R0
SYMATTR InstName R2
SYMATTR Value 1G
SYMBOL circuiTikz\\voltage_us 752 208 R0
WINDOW 123 0 0 Left 0
WINDOW 39 0 0 Left 0
SYMATTR InstName V1
SYMATTR Value 4
SYMBOL cap 592 176 R90
WINDOW 0 0 32 VBottom 2
WINDOW 3 32 32 VTop 2
SYMATTR InstName C1
SYMATTR Value 1µ
SYMBOL circuiTikz\\signal_square 160 304 R0
WINDOW 3 -245 75 Left 2
WINDOW 123 0 0 Left 0
WINDOW 39 0 0 Left 0
SYMATTR Value SINE(1 10m 1k)
SYMATTR InstName V2
SYMBOL circuiTikz\\njfet 400 288 R0
SYMATTR InstName J1
SYMBOL circuiTikz\\njfet 1168 288 R0
SYMATTR InstName J2
SYMBOL circuiTikz\\voltage_us 1280 272 R0
WINDOW 123 0 0 Left 0
WINDOW 39 0 0 Left 0
SYMATTR InstName A
SYMATTR Value 0
SYMBOL circuiTikz\\voltage_us 1008 304 R0
WINDOW 123 0 0 Left 0
WINDOW 39 0 0 Left 0
SYMATTR InstName V4
SYMATTR Value 1
SYMBOL cap 880 288 R180
WINDOW 0 24 56 Left 2
WINDOW 3 24 8 Left 2
SYMATTR InstName C7
SYMATTR Value 100p
TEXT -88 456 Left 2 !.tran 10m
TEXT 1208 472 Left 2 !;dc A 0.4 5 0.02
