Version 4
SHEET 1 1720 680
WIRE 128 -208 32 -208
WIRE 272 -208 192 -208
WIRE 32 -112 32 -208
WIRE 128 -112 32 -112
WIRE 272 -112 272 -208
WIRE 272 -112 208 -112
WIRE -224 -48 -224 -64
WIRE 112 16 112 -16
WIRE 192 16 112 16
WIRE 192 32 192 16
WIRE -224 64 -224 32
WIRE -96 64 -224 64
WIRE 32 64 32 -112
WIRE 32 64 -32 64
WIRE -1072 96 -1072 64
WIRE -928 96 -1072 96
WIRE -1072 128 -1072 96
WIRE 112 128 112 16
WIRE -928 144 -928 96
WIRE 32 144 32 64
WIRE 80 144 32 144
WIRE 272 160 272 -112
WIRE 272 160 144 160
WIRE 352 160 272 160
WIRE 80 176 48 176
WIRE -224 192 -224 64
WIRE -224 192 -272 192
WIRE 112 208 112 192
WIRE -224 240 -272 240
WIRE -96 240 -96 224
WIRE -1072 256 -1072 208
WIRE -928 256 -928 208
WIRE -928 256 -1072 256
WIRE -1072 272 -1072 256
WIRE -224 288 -224 240
WIRE -224 288 -272 288
WIRE -224 320 -224 288
WIRE -96 336 -96 320
WIRE 48 336 48 176
WIRE 48 336 -96 336
WIRE -96 352 -96 336
WIRE 48 368 48 336
WIRE -96 464 -96 432
WIRE 48 464 48 432
WIRE 48 464 -96 464
WIRE -96 480 -96 464
FLAG -224 320 0
FLAG -1072 272 0
FLAG -1072 64 VCC
FLAG -224 -64 VCC
FLAG 112 -16 VCC
FLAG 112 208 0
FLAG -96 224 VCC
FLAG -96 480 0
FLAG 192 96 0
FLAG 352 160 Vout
SYMBOL micelectret1 -384 208 R0
WINDOW 0 0 -49 Invisible 0
WINDOW 39 -10 104 Center 1
SYMATTR InstName U2
SYMATTR SpiceLine frec=1000   dBSPL=88  Sens=-24
SYMBOL circuiTikz\\voltage_us -1072 112 R0
WINDOW 123 0 0 Left 0
WINDOW 39 0 0 Left 0
SYMATTR InstName VCC
SYMATTR Value 2.5
SYMBOL cap -912 208 R180
WINDOW 0 24 56 Left 2
WINDOW 3 24 8 Left 2
SYMATTR InstName C6
SYMATTR Value 100p
SYMBOL res -240 -64 R0
SYMATTR InstName R5
SYMATTR Value 2.38k
SYMBOL cap -32 48 R90
WINDOW 0 0 32 VBottom 2
WINDOW 3 32 32 VTop 2
SYMATTR InstName C5
SYMATTR Value 3.34µ
SYMBOL cap 192 -224 R90
WINDOW 0 0 32 VBottom 2
WINDOW 3 32 32 VTop 2
SYMATTR InstName C7
SYMATTR Value 2.09p
SYMBOL res 224 -128 R90
WINDOW 0 0 56 VBottom 2
WINDOW 3 32 56 VTop 2
SYMATTR InstName R6
SYMATTR Value 3.8Meg
SYMBOL res -112 224 R0
SYMATTR InstName R7
SYMATTR Value 150k
SYMBOL res -112 336 R0
SYMATTR InstName R8
SYMATTR Value 150k
SYMBOL cap 64 432 R180
WINDOW 0 24 56 Left 2
WINDOW 3 -33 6 Left 2
SYMATTR InstName C8
SYMATTR Value 424n
SYMBOL cap 208 96 R180
WINDOW 0 24 56 Left 2
WINDOW 3 26 15 Left 2
SYMATTR InstName C9
SYMATTR Value 100n
SYMBOL AutoGenerated\\OPA2834 112 96 R0
SYMATTR InstName U3
TEXT -720 152 Left 2 ;Electret microphone model:\nImax = 0.21 mA\nV = 2 V\nS = -24 dB
TEXT -1104 456 Left 2 !;tran 0 50m
TEXT -1104 408 Left 2 !.ac dec 10 1 100K
TEXT -1096 520 Left 2 !.inc OPA2834.sub
RECTANGLE Normal -736 368 -160 128 1
