Version 4
SHEET 1 880 680
WIRE -1072 128 -1072 64
WIRE -224 128 -224 16
WIRE -224 128 -272 128
WIRE -224 176 -272 176
WIRE -224 224 -224 176
WIRE -224 224 -272 224
WIRE -224 256 -224 224
WIRE -1072 272 -1072 208
FLAG -224 16 VCC
FLAG -224 256 0
FLAG -1072 272 0
FLAG -1072 64 VCC
SYMBOL micelectret1 -384 144 R0
WINDOW 0 0 -49 Invisible 0
WINDOW 39 -10 104 Center 1
SYMATTR InstName U2
SYMATTR SpiceLine frec=1000   dBSPL=60  Sens=-24
SYMBOL circuiTikz\\voltage_us -1072 112 R0
WINDOW 123 0 0 Left 0
WINDOW 39 0 0 Left 0
SYMATTR InstName VCC
SYMATTR Value 3.6
TEXT -720 88 Left 2 ;Electret microphone model:\nImax = 0.5 mA\nV = 2 V\nS = -24 dB
TEXT -1104 408 Left 2 !.dc VCC 0 5 0.01
TEXT -1096 520 Left 2 !.inc TLV9001.sub
RECTANGLE Normal -736 304 -160 64 1
