Version 4
SHEET 1 1080 992
WIRE 784 128 688 128
WIRE 928 128 848 128
WIRE 16 224 16 192
WIRE 160 224 16 224
WIRE 688 224 688 128
WIRE 784 224 688 224
WIRE 928 224 928 128
WIRE 928 224 864 224
WIRE 16 256 16 224
WIRE 160 272 160 224
WIRE 432 288 432 272
WIRE 768 352 768 320
WIRE 848 352 768 352
WIRE 848 368 848 352
WIRE 16 384 16 336
WIRE 160 384 160 336
WIRE 160 384 16 384
WIRE 16 400 16 384
WIRE 432 400 432 368
WIRE 432 400 384 400
WIRE 560 400 432 400
WIRE 688 400 688 224
WIRE 688 400 624 400
WIRE 768 464 768 352
WIRE 688 480 688 400
WIRE 736 480 688 480
WIRE 928 496 928 224
WIRE 928 496 800 496
WIRE 1008 496 928 496
WIRE 736 512 704 512
WIRE 768 544 768 528
WIRE 560 576 560 560
WIRE 560 672 560 656
WIRE 704 672 704 512
WIRE 704 672 560 672
WIRE 560 688 560 672
WIRE 704 704 704 672
WIRE 560 800 560 768
WIRE 704 800 704 768
WIRE 704 800 560 800
WIRE 560 816 560 800
FLAG 432 272 VCC
FLAG 768 320 VCC
FLAG 768 544 0
FLAG 560 560 VCC
FLAG 560 816 0
FLAG 848 432 0
FLAG 1008 496 Vout
FLAG 384 480 0
FLAG 16 400 0
FLAG 16 192 VCC
SYMBOL res 416 272 R0
SYMATTR InstName R5
SYMATTR Value 2.38k
SYMBOL cap 624 384 R90
WINDOW 0 0 32 VBottom 2
WINDOW 3 32 32 VTop 2
SYMATTR InstName C5
SYMATTR Value 3.34µ
SYMBOL cap 848 112 R90
WINDOW 0 0 32 VBottom 2
WINDOW 3 32 32 VTop 2
SYMATTR InstName C7
SYMATTR Value 2.09p
SYMBOL res 880 208 R90
WINDOW 0 0 56 VBottom 2
WINDOW 3 32 56 VTop 2
SYMATTR InstName R6
SYMATTR Value 3.8Meg
SYMBOL res 544 560 R0
SYMATTR InstName R7
SYMATTR Value 150k
SYMBOL res 544 672 R0
SYMATTR InstName R8
SYMATTR Value 150k
SYMBOL cap 720 768 R180
WINDOW 0 24 56 Left 2
WINDOW 3 -33 6 Left 2
SYMATTR InstName C8
SYMATTR Value 424n
SYMBOL cap 864 432 R180
WINDOW 0 24 56 Left 2
WINDOW 3 26 15 Left 2
SYMATTR InstName C9
SYMATTR Value 100p
SYMBOL circuiTikz\\current_us 384 400 R0
WINDOW 0 49 35 Left 2
WINDOW 123 0 0 Left 0
WINDOW 39 0 0 Left 0
SYMATTR InstName I1
SYMATTR Value 1
SYMBOL circuiTikz\\voltage_us 16 240 R0
WINDOW 123 0 0 Left 0
WINDOW 39 0 0 Left 0
SYMATTR InstName VCC
SYMATTR Value 2.5
SYMBOL cap 176 336 R180
WINDOW 0 24 56 Left 2
WINDOW 3 24 8 Left 2
SYMATTR InstName C1
SYMATTR Value 100p
SYMBOL AutoGenerated\\OPA2834 768 432 R0
SYMATTR InstName U1
TEXT 56 712 Left 2 !.noise V(Vout) I1 dec 100 1p 100G
TEXT 56 664 Left 2 !;ac dec 10 1 100K
TEXT 64 776 Left 2 !.inc OPA2834.sub
