Version 4
SHEET 1 1720 680
WIRE -1072 128 -1072 64
WIRE -640 208 -640 64
WIRE -672 224 -800 224
WIRE -800 240 -800 224
WIRE -400 240 -608 240
WIRE -672 256 -704 256
WIRE -1072 272 -1072 208
WIRE -640 288 -640 272
WIRE -704 320 -704 256
WIRE -704 320 -800 320
FLAG -1072 272 0
FLAG -1072 64 VCC
FLAG -640 64 VCC
FLAG -640 288 0
FLAG -400 240 Vout
SYMBOL circuiTikz\\voltage_us -1072 112 R0
WINDOW 123 0 0 Left 0
WINDOW 39 0 0 Left 0
SYMATTR InstName VCC
SYMATTR Value 2.5
SYMBOL circuiTikz\\voltage_us -800 224 R0
WINDOW 123 24 124 Left 2
WINDOW 39 0 0 Left 0
WINDOW 3 24 44 Left 2
SYMATTR Value2 AC 1 0
SYMATTR InstName VCC1
SYMATTR Value 1.25
SYMBOL AutoGenerated\\OPA2834 -640 176 R0
SYMATTR InstName U1
TEXT -1104 456 Left 2 !;tran 0 50m
TEXT -1104 408 Left 2 !.ac dec 10 1 100G
TEXT -1096 520 Left 2 !.inc OPA2834.sub
