Version 4
SHEET 1 880 680
WIRE 112 -144 32 -144
WIRE 272 -144 176 -144
WIRE 32 -48 32 -144
WIRE 112 -48 32 -48
WIRE 272 -48 272 -144
WIRE 272 -48 192 -48
WIRE -224 -16 -224 -32
WIRE 112 96 112 64
WIRE -224 112 -224 64
WIRE -112 112 -224 112
WIRE 32 112 32 -48
WIRE 32 112 -48 112
WIRE 80 112 32 112
WIRE 272 128 272 -48
WIRE 272 128 144 128
WIRE 352 128 272 128
WIRE 80 144 48 144
WIRE 112 176 112 160
WIRE -224 192 -224 112
WIRE -224 192 -272 192
WIRE -224 240 -272 240
WIRE -96 240 -96 224
WIRE -224 288 -224 240
WIRE -224 288 -272 288
WIRE -224 320 -224 288
WIRE -96 336 -96 320
WIRE 48 336 48 144
WIRE 48 336 -96 336
WIRE -96 352 -96 336
WIRE 48 368 48 336
WIRE -96 464 -96 432
WIRE 48 464 48 432
WIRE 48 464 -96 464
WIRE -96 480 -96 464
FLAG -224 -32 VCC
FLAG 112 64 VCC
FLAG 112 176 0
FLAG -96 224 VCC
FLAG -96 480 0
FLAG 352 128 Vout
FLAG -224 320 0
SYMBOL res -240 -32 R0
WINDOW 0 47 64 Left 2
WINDOW 3 36 76 Invisible 2
SYMATTR InstName R1
SYMATTR Value 4.76k
SYMBOL cap -48 96 R90
WINDOW 0 0 32 VBottom 2
WINDOW 3 32 32 Invisible 2
SYMATTR InstName C1
SYMATTR Value 6.68u
SYMBOL cap 176 -160 R90
WINDOW 0 0 32 VBottom 2
WINDOW 3 32 32 Invisible 2
SYMATTR InstName C2
SYMATTR Value 16.7p
SYMBOL res 208 -64 R90
WINDOW 0 0 56 VBottom 2
WINDOW 3 32 56 Invisible 2
SYMATTR InstName R2
SYMATTR Value 71.4k
SYMBOL res -112 224 R0
WINDOW 0 42 49 Left 2
WINDOW 3 36 76 Invisible 2
SYMATTR InstName R3
SYMATTR Value 1Meg
SYMBOL res -112 336 R0
WINDOW 0 44 60 Left 2
WINDOW 3 36 76 Invisible 2
SYMATTR InstName R4
SYMATTR Value 1Meg
SYMBOL cap 64 432 R180
WINDOW 0 -40 33 Left 2
WINDOW 3 -33 6 Invisible 2
SYMATTR InstName C3
SYMATTR Value 64n
SYMBOL micelectret1 -384 208 R0
WINDOW 0 0 -49 Invisible 0
WINDOW 39 -10 104 Invisible 1
SYMATTR InstName U2
SYMATTR SpiceLine frec=1000   dBSPL=88  Sens=-24
SYMBOL AutoGenerated\\OPA2834 112 64 R0
WINDOW 3 60 85 Invisible 2
WINDOW 0 33 33 Invisible 2
SYMATTR InstName U1
TEXT -720 152 Left 2 ;Electret microphone model
RECTANGLE Normal -736 368 -160 128 1
